###############################################
# Control File for FrontISTR                  #
# generated by REVOCAP at 2013.10.27 17:49:53 #
###############################################
!VERSION
 3
####################
# Analysis Control #
####################
!WRITE,VISUAL
!WRITE,RESULT
!SOLUTION,TYPE=HEAT
!HEAT
##################
# SOLVER CONTROL #
##################
!SOLVER,METHOD=1,PRECOND=3,ITERLOG=YES,TIMELOG=YES
 50000, 2
 1.00000e-08, 1.00000, 0.00000
##################
# Output Control #
##################
######################
# Boundary Condition #
######################
#########################
# Temperature Condition #
#########################
#####################
# Loading Condition #
#####################
###########
# Gravity #
###########
#####################
# Centrifugal Force #
#####################
##############
# Body Force #
##############
!DFLUX
 2284, S1, 1.00000
 6449, S4, 1.00000
 7331, S3, 1.00000
 7606, S2, 1.00000
 10441, S3, 1.00000
 10899, S3, 1.00000
 14315, S4, 1.00000
 14325, S2, 1.00000
 14391, S1, 1.00000
 14792, S3, 1.00000
 14798, S3, 1.00000
 15091, S4, 1.00000
 16136, S2, 1.00000
 16137, S3, 1.00000
 16145, S3, 1.00000
 16211, S2, 1.00000
 16254, S4, 1.00000
 16263, S2, 1.00000
 16384, S2, 1.00000
 16401, S3, 1.00000
# ... 276 like lines cut
!FIXTEMP
 FTMP0, 0.00000
############
# Material #
############
!MATERIAL, NAME=Aluminum
!ELASTIC, TYPE=ISOTROPIC
 7.00000e+10, 0.345000
!DENSITY
 2690.00
############
# Coupling #
############
###########
# Contact #
###########
#############################################
# STEP Settings for FrontSTR Ver.3 or later #
#############################################
#########################
# Post Process Settings #
#########################
!VISUAL, method=PSR
!surface_num=1
!surface
!display_method=1
!surface_style=1
!initial_style=1
!output_type = COMPLETE_AVS
!x_resolution = 800
!y_resolution = 600
!num_of_lights = 1
!position_of_lights = 100.000, 100.000, 50.0000
!up_direction = 0.00000, 0.00000, 1.00000
!ambient_coef = 0.3
!diffuse_coef = 0.7
!specular_coef = 0.5
!color_mapping_bar_on = 1
!scale_marking_on = 1
!num_of_scale = 3
!font_size = 1.5
!font_color = 1.00000, 1.00000, 1.00000
!background_color = 0.00000, 0.00000, 0.00000
!END
